
                              +++++++++++++++++++++++++++++++++++++++++++++++++++++++++++++++++++++++
                              +                                                                     +
                              +                               MT3DMS                                +
                              +             A Modular 3D Multi-Species Transport Model              +
                              +    For Simulation of Advection, Dispersion and Chemical Reactions   +
                              +                of Contaminants in Groundwater Systems               +
                              +                                                                     +
                              +++++++++++++++++++++++++++++++++++++++++++++++++++++++++++++++++++++++

  ----- 
 | M T |  2D TEST PROBLEM                                                                
 | 3 D |  transient flow field                                                           
  ----- 
 THE TRANSPORT MODEL CONSISTS OF     1 LAYER(S)   17 ROW(S)   23 COLUMN(S)
 NUMBER OF STRESS PERIOD(S) FOR TRANSPORT SIMULATION =    1
 NUMBER OF ALL COMPONENTS INCLUDED IN SIMULATION =    1
 NUMBER OF MOBILE COMPONENTS INCLUDED IN SIMULATION =    1
 UNIT FOR TIME IS  day;  UNIT FOR LENGTH IS    m;  UNIT FOR MASS IS   gr
 PACKAGES INCLUDED IN CURRENT SIMULATION:
   1  2  3  4  5  6  7  8  9 10
   T  T  T  F  F  F  F  F  F  F

 BTN4 -- BASIC TRANSPORT PACKAGE, VERSION 4, AUGUST 2001, INPUT READ FROM UNIT  1
       6336 ELEMENTS OF THE  X ARRAY USED BY THE BTN PACKAGE
        392 ELEMENTS OF THE IX ARRAY USED BY THE BTN PACKAGE

 FMI4 -- FLOW MODEL INTERFACE PACKAGE, VERSION 4, AUGUST 2001, INPUT READ FROM UNIT 32
 FLOW MODEL IS TRANSIENT
 FLOW MODEL CONTAINS CONSTANT-HEAD CELLS

 ADV4 -- ADVECTION PACKAGE, VERSION 4, AUGUST 2001, INPUT READ FROM UNIT902
 ADVECTION IS SOLVED WITH THE UPSTREAM FINITE DIFFERENCE SCHEME
 COURANT NUMBER ALLOWED IN SOLVING THE ADVECTION TERM =  1.00    
          0 ELEMENTS OF THE  X ARRAY USED BY THE ADV PACKAGE
          0 ELEMENTS OF THE IX ARRAY USED BY THE ADV PACKAGE

 DSP4 -- DISPERSION PACKAGE, VERSION 4, AUGUST 2001, INPUT READ FROM UNIT903
       3913 ELEMENTS OF THE  X ARRAY USED BY THE DSP PACKAGE
          0 ELEMENTS OF THE IX ARRAY USED BY THE DSP PACKAGE

 SSM4 -- SINK & SOURCE MIXING PACKAGE, VERSION 4, AUGUST 2001, INPUT READ FROM UNIT904

 HEADER LINE OF THE SSM PACKAGE INPUT FILE:
  t F F F F F                                                                                                                                                                                            
 MAJOR STRESS COMPONENTS PRESENT IN THE FLOW MODEL:
 o WELL
 MAXIMUM NUMBER OF POINT SINKS/SOURCES =   10000
      70000 ELEMENTS OF THE  X ARRAY USED BY THE SSM PACKAGE
          0 ELEMENTS OF THE IX ARRAY BY THE SSM PACKAGE

 ................................................................
      80250 ELEMENTS OF THE  X ARRAY USED OUT OF  999999999
        393 ELEMENTS OF THE IX ARRAY USED OUT OF  999999999
 ................................................................

 LAYER NUMBER  AQUIFER TYPE
 ------------  ------------
       1            0
                                       WIDTH ALONG ROWS (DELR)  =   150.0000    
                                       WIDTH ALONG COLS (DELC)  =   150.0000    
                                       TOP ELEV. OF 1ST LAYER   =   30.00000    

                     CELL THICKNESS (DZ)      FOR LAYER  1 READ ON UNIT  1 USING FORMAT: "(10f12.3)           "
                     ------------------------------------------------------------------------------------------

           1       2       3       4       5       6       7       8       9      10      11      12      13      14      15
          16      17      18      19      20      21      22      23
 ................................................................................................................................
   1     30.0    30.0    30.0    30.0    30.0    30.0    30.0    30.0    30.0    30.0    30.0    30.0    30.0    30.0    30.0
         30.0    30.0    30.0    30.0    30.0    30.0    30.0    30.0
   2     29.1    29.1    29.1    29.1    29.1    29.1    29.1    29.1    29.1    29.1    29.1    29.1    29.1    29.1    29.1
         29.1    29.1    29.1    29.1    29.1    29.1    29.1    29.1
   3     28.1    28.1    28.1    28.1    28.1    28.1    28.1    28.1    28.1    28.1    28.1    28.1    28.1    28.1    28.1
         28.1    28.1    28.1    28.1    28.1    28.1    28.1    28.1
   4     27.2    27.2    27.2    27.2    27.2    27.2    27.2    27.2    27.2    27.2    27.2    27.2    27.2    27.2    27.2
         27.2    27.2    27.2    27.2    27.2    27.2    27.2    27.2
   5     26.2    26.2    26.2    26.2    26.2    26.2    26.2    26.2    26.2    26.2    26.2    26.2    26.2    26.2    26.2
         26.2    26.2    26.2    26.2    26.2    26.2    26.2    26.2
   6     25.3    25.3    25.3    25.3    25.3    25.3    25.3    25.3    25.3    25.3    25.3    25.3    25.3    25.3    25.3
         25.3    25.3    25.3    25.3    25.3    25.3    25.3    25.3
   7     24.4    24.4    24.4    24.4    24.4    24.4    24.4    24.4    24.4    24.4    24.4    24.4    24.4    24.4    24.4
         24.4    24.4    24.4    24.4    24.4    24.4    24.4    24.4
   8     23.4    23.4    23.4    23.4    23.4    23.4    23.4    23.4    23.4    23.4    23.4    23.4    23.4    23.4    23.4
         23.4    23.4    23.4    23.4    23.4    23.4    23.4    23.4
   9     22.5    22.5    22.5    22.5    22.5    22.5    22.5    22.5    22.5    22.5    22.5    22.5    22.5    22.5    22.5
         22.5    22.5    22.5    22.5    22.5    22.5    22.5    22.5
  10     21.6    21.6    21.6    21.6    21.6    21.6    21.6    21.6    21.6    21.6    21.6    21.6    21.6    21.6    21.6
         21.6    21.6    21.6    21.6    21.6    21.6    21.6    21.6
  11     20.6    20.6    20.6    20.6    20.6    20.6    20.6    20.6    20.6    20.6    20.6    20.6    20.6    20.6    20.6
         20.6    20.6    20.6    20.6    20.6    20.6    20.6    20.6
  12     19.7    19.7    19.7    19.7    19.7    19.7    19.7    19.7    19.7    19.7    19.7    19.7    19.7    19.7    19.7
         19.7    19.7    19.7    19.7    19.7    19.7    19.7    19.7
  13     18.8    18.8    18.8    18.8    18.8    18.8    18.8    18.8    18.8    18.8    18.8    18.8    18.8    18.8    18.8
         18.8    18.8    18.8    18.8    18.8    18.8    18.8    18.8
  14     17.8    17.8    17.8    17.8    17.8    17.8    17.8    17.8    17.8    17.8    17.8    17.8    17.8    17.8    17.8
         17.8    17.8    17.8    17.8    17.8    17.8    17.8    17.8
  15     16.9    16.9    16.9    16.9    16.9    16.9    16.9    16.9    16.9    16.9    16.9    16.9    16.9    16.9    16.9
         16.9    16.9    16.9    16.9    16.9    16.9    16.9    16.9
  16     15.9    15.9    15.9    15.9    15.9    15.9    15.9    15.9    15.9    15.9    15.9    15.9    15.9    15.9    15.9
         15.9    15.9    15.9    15.9    15.9    15.9    15.9    15.9
  17     15.0    15.0    15.0    15.0    15.0    15.0    15.0    15.0    15.0    15.0    15.0    15.0    15.0    15.0    15.0
         15.0    15.0    15.0    15.0    15.0    15.0    15.0    15.0
                                       POROSITY                 =  0.2500000     FOR LAYER  1
                                       CONCN. BOUNDARY ARRAY    =              1 FOR LAYER  1

                     INITIAL CONC.: COMP.  01 FOR LAYER  1 READ ON UNIT  1 USING FORMAT: "(5x,15f8.3)         "
                     ------------------------------------------------------------------------------------------

           1       2       3       4       5       6       7       8       9      10      11      12      13      14      15
          16      17      18      19      20      21      22      23
 ................................................................................................................................
   1      0.0     0.0     0.0     0.0     0.0     0.0     0.0     0.0     0.0     0.0     0.0     0.0     0.0     0.0     0.0
          0.0     0.0     0.0     0.0     0.0     0.0     0.0     0.0
   2      0.0     0.0     0.0     0.0     0.0     0.0     0.0     0.0     0.0     0.0     0.0     0.0     0.0     0.0     0.0
          0.0     0.0     0.0     0.0     0.0     0.0     0.0     0.0
   3      0.0     0.0     0.0     0.0     0.0     0.0     0.0     0.0     0.0     0.0     0.0     0.0     0.0     0.0     0.0
          0.0     0.0     0.0     0.0     0.0     0.0     0.0     0.0
   4      0.0     0.0     0.0     0.0     0.0     0.0     0.0     0.0     0.0     0.0     0.0     0.0     0.0     0.0     0.0
          0.0     0.0     0.0     0.0     0.0     0.0     0.0     0.0
   5      0.0     0.0     0.0     0.0     0.0     0.0     0.0     0.0     0.0     0.0     0.0     0.0     0.0     0.0     0.0
          0.0     0.0     0.0     0.0     0.0     0.0     0.0     0.0
   6      0.0     0.0     0.0     0.0     0.0     0.1     0.1     0.1     0.1     0.0     0.0     0.0     0.0     0.0     0.0
          0.0     0.0     0.0     0.0     0.0     0.0     0.0     0.0
   7      0.0     0.0     0.1     0.2     0.6     0.9     1.2     1.2     1.1     0.8     0.5     0.2     0.1     0.0     0.0
          0.0     0.0     0.0     0.0     0.0     0.0     0.0     0.0
   8      0.0     0.2     0.8     2.6     7.4    10.6    12.1    11.9    10.2     7.6     4.8     2.5     1.0     0.3     0.1
          0.0     0.0     0.0     0.0     0.0     0.0     0.0     0.0
   9      0.2     1.0     4.8    22.2   100.0    88.7    77.3    64.8    51.1    36.9    23.7    13.2     6.1     2.3     0.6
          0.1     0.0     0.0     0.0     0.0     0.0     0.0     0.0
  10      0.0     0.2     0.8     2.6     7.4    10.6    12.1    11.9    10.2     7.6     4.8     2.5     1.0     0.3     0.1
          0.0     0.0     0.0     0.0     0.0     0.0     0.0     0.0
  11      0.0     0.0     0.1     0.2     0.6     0.9     1.2     1.2     1.1     0.8     0.5     0.2     0.1     0.0     0.0
          0.0     0.0     0.0     0.0     0.0     0.0     0.0     0.0
  12      0.0     0.0     0.0     0.0     0.0     0.1     0.1     0.1     0.1     0.0     0.0     0.0     0.0     0.0     0.0
          0.0     0.0     0.0     0.0     0.0     0.0     0.0     0.0
  13      0.0     0.0     0.0     0.0     0.0     0.0     0.0     0.0     0.0     0.0     0.0     0.0     0.0     0.0     0.0
          0.0     0.0     0.0     0.0     0.0     0.0     0.0     0.0
  14      0.0     0.0     0.0     0.0     0.0     0.0     0.0     0.0     0.0     0.0     0.0     0.0     0.0     0.0     0.0
          0.0     0.0     0.0     0.0     0.0     0.0     0.0     0.0
  15      0.0     0.0     0.0     0.0     0.0     0.0     0.0     0.0     0.0     0.0     0.0     0.0     0.0     0.0     0.0
          0.0     0.0     0.0     0.0     0.0     0.0     0.0     0.0
  16      0.0     0.0     0.0     0.0     0.0     0.0     0.0     0.0     0.0     0.0     0.0     0.0     0.0     0.0     0.0
          0.0     0.0     0.0     0.0     0.0     0.0     0.0     0.0
  17      0.0     0.0     0.0     0.0     0.0     0.0     0.0     0.0     0.0     0.0     0.0     0.0     0.0     0.0     0.0
          0.0     0.0     0.0     0.0     0.0     0.0     0.0     0.0

 VALUE INDICATING INACTIVE CONCENTRATION CELLS =   -999.9900    
 MINIMUM SATURATED THICKNESS [THKMIN] ALLOWED =  0.0000 OF TOTAL CELL THICKNESS


 OUTPUT CONTROL OPTIONS
 ----------------------

 PRINT CELL CONCENTRATION USING FORMAT CODE:    5
 PRINT PARTICLE NUMBER IN EACH CELL USING FORMAT CODE:    2
 PRINT RETARDATION FACTOR USING FORMAT CODE:    0
 DO NOT PRINT DISPERSION COEFFICIENT
 SAVE DISSOLVED PHASE CONCENTRATIONS IN UNFORMATTED FILES [MT3Dnnn.UCN]
  FOR EACH SPECIES ON UNITS *** AND ABOVE

 NUMBER OF TIMES AT WHICH SIMULATION RESULTS ARE SAVED =   16
 TOTAL ELAPSED TIMES AT WHICH SIMULATION RESULTS ARE SAVED: 
    0.0000       20.000       30.000       40.000       50.000       60.000       70.000       80.000    
    900.00       1000.0       1100.0       1200.0       1300.0       1400.0       1500.0       1600.0    


 NUMBER OF OBSERVATION POINTS =    1
 SAVE CONCENTRATIONS AT OBSERVATION POINTS IN FILES [MT3Dnnn.OBS]
  FOR EACH SPECIES ON UNITS *** AND ABOVE, EVERY  1 TRANSPORT STEPS
 LOCATION OF OBSERVATION POINTS
 ..............................
 NUMBER  LAYER   ROW   COLUMN
   1        1      9     17

 SAVE ONE-LINE SUMMARY OF MASS BUDGETS IN FILES [MT3Dnnn.MAS]
  FOR EACH SPECIES ON UNITS *** AND ABOVE, EVERY  1 TRANSPORT STEPS

 MAXIMUM LENGTH ALONG THE X (J) AXIS =   3450.000    
 MAXIMUM LENGTH ALONG THE Y (I) AXIS =   2550.000    
 MAXIMUM LENGTH ALONG THE Z (K) AXIS =   30.00000    


 ADVECTION SOLUTION OPTIONS
 --------------------------

 ADVECTION IS SOLVED WITH THE UPSTREAM FINITE DIFFERENCE SCHEME
 COURANT NUMBER ALLOWED IN SOLVING THE ADVECTION TERM =  1.00    


 DISPERSION PARAMETERS
 ---------------------

                                       LONG. DISPERSIVITY (AL)  =   50.00000     FOR LAYER  1
                                       H. TRANS./LONG. DISP.    =  0.2000000    
                                       V. TRANS./LONG. DISP.    =   0.000000    
                                       DIFFUSION COEFFICIENT    =   0.000000    


                                   ++++++++++++++++++++++++++++++++++++++++++++++++++++++++++++++
                                                       STRESS PERIOD NO.  001
                                   ++++++++++++++++++++++++++++++++++++++++++++++++++++++++++++++


 LENGTH OF CURRENT STRESS PERIOD =   1825.000    
 NUMBER OF TIME STEPS FOR CURRENT STRESS PERIOD =    5
 TIME STEP MULTIPLIER USED IN FLOW SOLUTION =   1.100000    
 USER-SPECIFIED TRANSPORT STEPSIZE =   0.000000     day
 MAXIMUM NUMBER OF TRANSPORT STEPS ALLOWED  IN ONE FLOW TIME STEP =     20000
 MULTIPLIER FOR SUCCESSIVE TRANSPORT STEPS  [USED IN IMPLICIT SCHEMES] =     1.000
 MAXIMUM TRANSPORT STEP SIZE  [USED IN IMPLICIT SCHEMES] =   0.000000     day

 NO. OF POINT SINKS/SOURCES OF SPECIFIED CONCONCENTRATIONS =    0 IN STRESS PERIOD  1


                                          ================================================
                                                         TIME STEP NO.  001
                                          ================================================

 FROM TIME =   0.0000     TO    298.93    


                    "THKSAT          " FLOW TERMS FOR TIME STEP  1, STRESS PERIOD  1 READ UNFORMATTED ON UNIT 32
                    --------------------------------------------------------------------------------------------

                    "QXX             " FLOW TERMS FOR TIME STEP  1, STRESS PERIOD  1 READ UNFORMATTED ON UNIT 32
                    --------------------------------------------------------------------------------------------

                    "QYY             " FLOW TERMS FOR TIME STEP  1, STRESS PERIOD  1 READ UNFORMATTED ON UNIT 32
                    --------------------------------------------------------------------------------------------

                    "STO             " FLOW TERMS FOR TIME STEP  1, STRESS PERIOD  1 READ UNFORMATTED ON UNIT 32
                    --------------------------------------------------------------------------------------------

 MAXIMUM STEPSIZE DURING WHICH ANY PARTICLE CANNOT MOVE MORE THAN ONE CELL
 =  248.0    (WHEN MIN. R.F.=1)  AT K=   1, I=   9, J=  10

 MAXIMUM STEPSIZE WHICH MEETS STABILITY CRITERION OF THE ADVECTION TERM
 (FOR PURE FINITE-DIFFERENCE OPTION, MIXELM=0) 
 =  112.5    (WHEN MIN. R.F.=1)  AT K=   1, I=   9, J=  11

                    "CNH             " FLOW TERMS FOR TIME STEP  1, STRESS PERIOD  1 READ UNFORMATTED ON UNIT 32
                    --------------------------------------------------------------------------------------------

                    "WEL             " FLOW TERMS FOR TIME STEP  1, STRESS PERIOD  1 READ UNFORMATTED ON UNIT 32
                    --------------------------------------------------------------------------------------------


 TOTAL NUMBER OF POINT SOURCES/SINKS PRESENT IN THE FLOW MODEL =    35

 MAXIMUM STEPSIZE WHICH MEETS STABILITY CRITERION OF THE SINK & SOURCE TERM
 =  552.7    (WHEN MIN. R.F.=1)  AT K=   1, I=  10, J=   1

 MAXIMUM STEPSIZE WHICH MEETS STABILITY CRITERION OF THE DISPERSION TERM
 =  255.0    (WHEN MIN. R.F.=1)  AT K=   1, I=   9, J=  10



 >>>>>>>>>>>>>>>>>>>>>>>>>>>>>>>>>>>>>>>>>>>>>>>>>>>>>>>FOR COMPONENT NO. 01<<<<<<<<<<<<<<<<<<<<<<<<<<<<<<<<<<<<<<<<<<<<<<<<<<<<<<<


                                            -------------------------------------------
                                                      TRANSPORT STEP NO.    1
                                            -------------------------------------------

 TOTAL ELAPSED TIME SINCE BEGINNING OF SIMULATION =   0.000000     day
 .....................................................................

                     CONCENTRATIONS   IN LAYER  1 AT END OF TRANSPORT STEP    1, TIME STEP  1, STRESS PERIOD  1
                     ------------------------------------------------------------------------------------------

           1       2       3       4       5       6       7       8       9      10      11      12      13      14      15
          16      17      18      19      20      21      22      23
 ................................................................................................................................
   1    0.000   0.000   0.000   0.000   0.000   0.000   0.000   0.000   0.000   0.000   0.000   0.000   0.000   0.000   0.000
        0.000   0.000   0.000   0.000   0.000   0.000   0.000   0.000
   2    0.000   0.000   0.000   0.000   0.000   0.000   0.000   0.000   0.000   0.000   0.000   0.000   0.000   0.000   0.000
        0.000   0.000   0.000   0.000   0.000   0.000   0.000   0.000
   3    0.000   0.000   0.000   0.000   0.000   0.000   0.000   0.000   0.000   0.000   0.000   0.000   0.000   0.000   0.000
        0.000   0.000   0.000   0.000   0.000   0.000   0.000   0.000
   4    0.000   0.000   0.000   0.000   0.000   0.000   0.000   0.000   0.000   0.000   0.000   0.000   0.000   0.000   0.000
        0.000   0.000   0.000   0.000   0.000   0.000   0.000   0.000
   5    0.000   0.000   0.000   0.001   0.002   0.003   0.004   0.004   0.003   0.002   0.001   0.000   0.000   0.000   0.000
        0.000   0.000   0.000   0.000   0.000   0.000   0.000   0.000
   6    0.000   0.001   0.005   0.015   0.034   0.059   0.078   0.082   0.070   0.048   0.025   0.010   0.002   0.000   0.000
        0.000   0.000   0.000   0.000   0.000   0.000   0.000   0.000
   7    0.005   0.019   0.072   0.226   0.551   0.903   1.152   1.209   1.059   0.769   0.454   0.210   0.071   0.016   0.002
        0.000   0.000   0.000   0.000   0.000   0.000   0.000   0.000
   8    0.043   0.189   0.758   2.649   7.417  10.591  12.098  11.911  10.235   7.612   4.806   2.503   1.032   0.315   0.064
        0.006   0.000   0.000   0.000   0.000   0.000   0.000   0.000
   9    0.216   1.025   4.839  22.190 100.000  88.730  77.271  64.794  51.093  36.906  23.748  13.211   6.137   2.276   0.631
        0.116   0.011   0.000   0.000   0.000   0.000   0.000   0.000
  10    0.043   0.189   0.758   2.649   7.418  10.595  12.106  11.922  10.249   7.626   4.818   2.511   1.036   0.317   0.064
        0.006   0.000   0.000   0.000   0.000   0.000   0.000   0.000
  11    0.005   0.019   0.072   0.226   0.552   0.904   1.154   1.212   1.062   0.772   0.456   0.211   0.072   0.016   0.002
        0.000   0.000   0.000   0.000   0.000   0.000   0.000   0.000
  12    0.000   0.001   0.005   0.015   0.034   0.059   0.078   0.083   0.071   0.048   0.025   0.010   0.002   0.000   0.000
        0.000   0.000   0.000   0.000   0.000   0.000   0.000   0.000
  13    0.000   0.000   0.000   0.001   0.002   0.003   0.004   0.004   0.003   0.002   0.001   0.000   0.000   0.000   0.000
        0.000   0.000   0.000   0.000   0.000   0.000   0.000   0.000
  14    0.000   0.000   0.000   0.000   0.000   0.000   0.000   0.000   0.000   0.000   0.000   0.000   0.000   0.000   0.000
        0.000   0.000   0.000   0.000   0.000   0.000   0.000   0.000
  15    0.000   0.000   0.000   0.000   0.000   0.000   0.000   0.000   0.000   0.000   0.000   0.000   0.000   0.000   0.000
        0.000   0.000   0.000   0.000   0.000   0.000   0.000   0.000
  16    0.000   0.000   0.000   0.000   0.000   0.000   0.000   0.000   0.000   0.000   0.000   0.000   0.000   0.000   0.000
        0.000   0.000   0.000   0.000   0.000   0.000   0.000   0.000
  17    0.000   0.000   0.000   0.000   0.000   0.000   0.000   0.000   0.000   0.000   0.000   0.000   0.000   0.000   0.000
        0.000   0.000   0.000   0.000   0.000   0.000   0.000   0.000

                     CUMMULATIVE MASS BUDGETS AT END OF TRANSPORT STEP    1, TIME STEP    1, STRESS PERIOD    1
                     ------------------------------------------------------------------------------------------

                                                             IN                           OUT
                                                      ----------------             ----------------
                               CONSTANT CONCENTRATION:    0.000000                    0.000000    
                                        CONSTANT HEAD:    0.000000                    0.000000    
                                                WELLS:    0.000000                    0.000000    
                                MASS STORAGE (SOLUTE):    0.000000                    0.000000    
                            ---------------------------------------------------------------------------
                                              [TOTAL]:    0.000000       gr           0.000000       gr

                                                          NET (IN - OUT):    0.000000    
                                                   DISCREPANCY (PERCENT):    0.000000    



 >>>>>>>>>>>>>>>>>>>>>>>>>>>>>>>>>>>>>>>>>>>>>>>>>>>>>>>FOR COMPONENT NO. 01<<<<<<<<<<<<<<<<<<<<<<<<<<<<<<<<<<<<<<<<<<<<<<<<<<<<<<<


                                            -------------------------------------------
                                                      TRANSPORT STEP NO.    2
                                            -------------------------------------------

 TOTAL ELAPSED TIME SINCE BEGINNING OF SIMULATION =   20.00000     day
 .....................................................................

                     CONCENTRATIONS   IN LAYER  1 AT END OF TRANSPORT STEP    2, TIME STEP  1, STRESS PERIOD  1
                     ------------------------------------------------------------------------------------------

           1       2       3       4       5       6       7       8       9      10      11      12      13      14      15
          16      17      18      19      20      21      22      23
 ................................................................................................................................
   1    0.000   0.000   0.000   0.000   0.000   0.000   0.000   0.000   0.000   0.000   0.000   0.000   0.000   0.000   0.000
        0.000   0.000   0.000   0.000   0.000   0.000   0.000   0.000
   2    0.000   0.000   0.000   0.000   0.000   0.000   0.000   0.000   0.000   0.000   0.000   0.000   0.000   0.000   0.000
        0.000   0.000   0.000   0.000   0.000   0.000   0.000   0.000
   3    0.000   0.000   0.000   0.000   0.000   0.000   0.000   0.000   0.000   0.000   0.000   0.000   0.000   0.000   0.000
        0.000   0.000   0.000   0.000   0.000   0.000   0.000   0.000
   4    0.000   0.000   0.000   0.000   0.000   0.000   0.000   0.000   0.000   0.000   0.000   0.000   0.000   0.000   0.000
        0.000   0.000   0.000   0.000   0.000   0.000   0.000   0.000
   5    0.000   0.000   0.000   0.001   0.002   0.003   0.004   0.004   0.003   0.002   0.001   0.000   0.000   0.000   0.000
        0.000   0.000   0.000   0.000   0.000   0.000   0.000   0.000
   6    0.000   0.001   0.005   0.015   0.035   0.060   0.080   0.084   0.073   0.050   0.026   0.010   0.002   0.000   0.000
        0.000   0.000   0.000   0.000   0.000   0.000   0.000   0.000
   7    0.005   0.019   0.073   0.229   0.556   0.912   1.165   1.228   1.083   0.796   0.483   0.219   0.073   0.016   0.002
        0.000   0.000   0.000   0.000   0.000   0.000   0.000   0.000
   8    0.044   0.191   0.763   2.665   7.436  10.604  12.124  11.960  10.315   7.736   5.089   2.539   1.035   0.319   0.067
        0.007   0.000   0.000   0.000   0.000   0.000   0.000   0.000
   9    0.217   1.028   4.844  22.194  95.451  88.633  77.175  64.688  50.872  36.181  21.268  12.721   6.065   2.286   0.650
        0.124   0.013   0.000   0.000   0.000   0.000   0.000   0.000
  10    0.044   0.191   0.762   2.661   7.448  10.628  12.158  12.002  10.361   7.778   5.113   2.543   1.036   0.322   0.068
        0.007   0.000   0.000   0.000   0.000   0.000   0.000   0.000
  11    0.005   0.019   0.073   0.229   0.557   0.913   1.169   1.233   1.088   0.800   0.485   0.219   0.073   0.016   0.002
        0.000   0.000   0.000   0.000   0.000   0.000   0.000   0.000
  12    0.000   0.001   0.005   0.015   0.035   0.060   0.080   0.085   0.074   0.050   0.027   0.010   0.002   0.000   0.000
        0.000   0.000   0.000   0.000   0.000   0.000   0.000   0.000
  13    0.000   0.000   0.000   0.001   0.002   0.003   0.004   0.004   0.003   0.002   0.001   0.000   0.000   0.000   0.000
        0.000   0.000   0.000   0.000   0.000   0.000   0.000   0.000
  14    0.000   0.000   0.000   0.000   0.000   0.000   0.000   0.000   0.000   0.000   0.000   0.000   0.000   0.000   0.000
        0.000   0.000   0.000   0.000   0.000   0.000   0.000   0.000
  15    0.000   0.000   0.000   0.000   0.000   0.000   0.000   0.000   0.000   0.000   0.000   0.000   0.000   0.000   0.000
        0.000   0.000   0.000   0.000   0.000   0.000   0.000   0.000
  16    0.000   0.000   0.000   0.000   0.000   0.000   0.000   0.000   0.000   0.000   0.000   0.000   0.000   0.000   0.000
        0.000   0.000   0.000   0.000   0.000   0.000   0.000   0.000
  17    0.000   0.000   0.000   0.000   0.000   0.000   0.000   0.000   0.000   0.000   0.000   0.000   0.000   0.000   0.000
        0.000   0.000   0.000   0.000   0.000   0.000   0.000   0.000

                     CUMMULATIVE MASS BUDGETS AT END OF TRANSPORT STEP    2, TIME STEP    1, STRESS PERIOD    1
                     ------------------------------------------------------------------------------------------

                                                             IN                           OUT
                                                      ----------------             ----------------
                               CONSTANT CONCENTRATION:    0.000000                    0.000000    
                                        CONSTANT HEAD:    0.000000                    0.000000    
                                                WELLS:    0.000000                   -885632.3    
                                MASS STORAGE (SOLUTE):    1118581.                   -233122.8    
                            ---------------------------------------------------------------------------
                                              [TOTAL]:    1118755.       gr          -1118755.       gr

                                                          NET (IN - OUT):   0.2500000    
                                                   DISCREPANCY (PERCENT):   0.2234626E-04



 >>>>>>>>>>>>>>>>>>>>>>>>>>>>>>>>>>>>>>>>>>>>>>>>>>>>>>>FOR COMPONENT NO. 01<<<<<<<<<<<<<<<<<<<<<<<<<<<<<<<<<<<<<<<<<<<<<<<<<<<<<<<


                                            -------------------------------------------
                                                      TRANSPORT STEP NO.    3
                                            -------------------------------------------

 TOTAL ELAPSED TIME SINCE BEGINNING OF SIMULATION =   30.00000     day
 .....................................................................

                     CONCENTRATIONS   IN LAYER  1 AT END OF TRANSPORT STEP    3, TIME STEP  1, STRESS PERIOD  1
                     ------------------------------------------------------------------------------------------

           1       2       3       4       5       6       7       8       9      10      11      12      13      14      15
          16      17      18      19      20      21      22      23
 ................................................................................................................................
   1    0.000   0.000   0.000   0.000   0.000   0.000   0.000   0.000   0.000   0.000   0.000   0.000   0.000   0.000   0.000
        0.000   0.000   0.000   0.000   0.000   0.000   0.000   0.000
   2    0.000   0.000   0.000   0.000   0.000   0.000   0.000   0.000   0.000   0.000   0.000   0.000   0.000   0.000   0.000
        0.000   0.000   0.000   0.000   0.000   0.000   0.000   0.000
   3    0.000   0.000   0.000   0.000   0.000   0.000   0.000   0.000   0.000   0.000   0.000   0.000   0.000   0.000   0.000
        0.000   0.000   0.000   0.000   0.000   0.000   0.000   0.000
   4    0.000   0.000   0.000   0.000   0.000   0.000   0.000   0.000   0.000   0.000   0.000   0.000   0.000   0.000   0.000
        0.000   0.000   0.000   0.000   0.000   0.000   0.000   0.000
   5    0.000   0.000   0.000   0.001   0.002   0.003   0.004   0.004   0.003   0.002   0.001   0.000   0.000   0.000   0.000
        0.000   0.000   0.000   0.000   0.000   0.000   0.000   0.000